docs/examples/data/ieee39.json
{"bus":{"24":{"name":"Bus 24","bus_type":1,"va":-0.10590495222222408,"vm":1.0373111128677606,"vmin":0.0,"base_kv":345.0,"vmax":1.0499999523162842,"index":24},"4":{"name":"Bus 04","bus_type":1,"va":-0.16766797609983222,"vm":1.0038627525094097,"vmin":0.0,"base_kv":345.0,"vmax":1.0499999523162842,"index":4},"1":{"name":"Bus 01","bus_type":1,"va":-0.14728283322336544,"vm":1.047356351876774,"vmin":0.0,"base_kv":345.0,"vmax":1.0499999523162842,"index":1},"12":{"name":"Bus 12","bus_type":1,"va":-0.10897211279715559,"vm":1.0001514639403726,"vmin":0.0,"base_kv":138.0,"vmax":1.0499999523162842,"index":12},"29":{"name":"Bus 29","bus_type":1,"va":0.01299145409717395,"vm":1.0499423752542882,"vmin":0.0,"base_kv":345.0,"vmax":1.0499999523162842,"index":29},"20":{"name":"Bus 20","bus_type":1,"va":-0.03516272786567158,"vm":0.9911765351457726,"vmin":0.0,"base_kv":230.0,"vmax":1.0499999523162842,"index":20},"32":{"name":"Bus 32","bus_type":2,"va":0.044836814180805026,"vm":0.9830999970436096,"vmin":0.0,"base_kv":16.5,"vmax":1.0499999523162842,"index":32},"2":{"name":"Bus 02","bus_type":1,"va":-0.10042209281038247,"vm":1.0487362562259313,"vmin":0.0,"base_kv":345.0,"vmax":1.0499999523162842,"index":2},"25":{"name":"Bus 25","bus_type":1,"va":-0.07615554638558357,"vm":1.057567615092033,"vmin":0.0,"base_kv":345.0,"vmax":1.0499999523162842,"index":25},"6":{"name":"Bus 06","bus_type":1,"va":-0.1387481432974922,"vm":1.0076724408269642,"vmin":0.0,"base_kv":345.0,"vmax":1.0499999523162842,"index":6},"23":{"name":"Bus 23","bus_type":1,"va":0.008203535900836625,"vm":1.0447886610745516,"vmin":0.0,"base_kv":345.0,"vmax":1.0499999523162842,"index":23},"22":{"name":"Bus 22","bus_type":1,"va":0.011664136174879184,"vm":1.0497949281646217,"vmin":0.0,"base_kv":345.0,"vmax":1.0499999523162842,"index":22},"11":{"name":"Bus 11","bus_type":1,"va":-0.1096810680149191,"vm":1.0126936800074462,"vmin":0.0,"base_kv":345.0,"vmax":1.0499999523162842,"index":11},"35":{"name":"Bus 35","bus_type":2,"va":0.09826297924167605,"vm":1.049299955368042,"vmin":0.0,"base_kv":16.5,"vmax":1.0499999523162842,"index":35},"13":{"name":"Bus 13","bus_type":1,"va":-0.10642525064651015,"vm":1.0143070886843368,"vmin":0.0,"base_kv":345.0,"vmax":1.0499999523162842,"index":13},"31":{"name":"Bus 31","bus_type":3,"va":0.0,"vm":0.9819999933242798,"vmin":0.0,"base_kv":16.5,"vmax":1.0499999523162842,"index":31},"15":{"name":"Bus 15","bus_type":1,"va":-0.1350202822375819,"vm":1.0153835865515732,"vmin":0.0,"base_kv":345.0,"vmax":1.0499999523162842,"index":15},"5":{"name":"Bus 05","bus_type":1,"va":-0.15030536435920333,"vm":1.0053108478125292,"vmin":0.0,"base_kv":345.0,"vmax":1.0499999523162842,"index":5},"27":{"name":"Bus 27","bus_type":1,"va":-0.13081980609792537,"vm":1.0377412954363365,"vmin":0.0,"base_kv":345.0,"vmax":1.0499999523162842,"index":27},"33":{"name":"Bus 33","bus_type":2,"va":0.07321113779434503,"vm":0.9972000122070312,"vmin":0.0,"base_kv":16.5,"vmax":1.0499999523162842,"index":33},"28":{"name":"Bus 28","bus_type":1,"va":-0.03516638910447396,"vm":1.0501221818925073,"vmin":0.0,"base_kv":345.0,"vmax":1.0499999523162842,"index":28},"16":{"name":"Bus 16","bus_type":1,"va":-0.10799240113096581,"vm":1.0317737925801207,"vmin":0.0,"base_kv":345.0,"vmax":1.0499999523162842,"index":16},"14":{"name":"Bus 14","bus_type":1,"va":-0.13362957372508039,"vm":1.0117331971090464,"vmin":0.0,"base_kv":345.0,"vmax":1.0499999523162842,"index":14},"39":{"name":"Bus 39","bus_type":2,"va":-0.17545727687185003,"vm":1.0299999713897705,"vmin":0.0,"base_kv":345.0,"vmax":1.0499999523162842,"index":39},"21":{"name":"Bus 21","bus_type":1,"va":-0.0659827582034801,"vm":1.0317604493928036,"vmin":0.0,"base_kv":345.0,"vmax":1.0499999523162842,"index":21},"38":{"name":"Bus 38","bus_type":2,"va":0.13627054238325567,"vm":1.0264999866485596,"vmin":0.0,"base_kv":16.5,"vmax":1.0499999523162842,"index":38},"7":{"name":"Bus 07","bus_type":1,"va":-0.17669404900917937,"vm":0.9970012469338209,"vmin":0.0,"base_kv":345.0,"vmax":1.0499999523162842,"index":7},"34":{"name":"Bus 34","bus_type":2,"va":0.05541408745232026,"vm":1.0123000144958496,"vmin":0.0,"base_kv":16.5,"vmax":1.0499999523162842,"index":34},"8":{"name":"Bus 08","bus_type":1,"va":-0.18527334686321334,"vm":0.9960198675012683,"vmin":0.0,"base_kv":345.0,"vmax":1.0499999523162842,"index":8},"36":{"name":"Bus 36","bus_type":2,"va":0.14526231505907067,"vm":1.0635000467300415,"vmin":0.0,"base_kv":16.5,"vmax":1.0499999523162842,"index":36},"26":{"name":"Bus 26","bus_type":1,"va":-0.09645953960172363,"vm":1.0520754215505679,"vmin":0.0,"base_kv":345.0,"vmax":1.0499999523162842,"index":26},"17":{"name":"Bus 17","bus_type":1,"va":-0.1274314696243782,"vm":1.0335552805843098,"vmin":0.0,"base_kv":345.0,"vmax":1.0499999523162842,"index":17},"19":{"name":"Bus 19","bus_type":1,"va":-0.017850666785796495,"vm":1.0498608933967892,"vmin":0.0,"base_kv":345.0,"vmax":1.0499999523162842,"index":19},"10":{"name":"Bus 10","bus_type":1,"va":-0.09472121772523584,"vm":1.0171505953869406,"vmin":0.0,"base_kv":345.0,"vmax":1.0499999523162842,"index":10},"37":{"name":"Bus 37","bus_type":2,"va":0.04225628893149127,"vm":1.0277999639511108,"vmin":0.0,"base_kv":16.5,"vmax":1.0499999523162842,"index":37},"18":{"name":"Bus 18","bus_type":1,"va":-0.14353339586489972,"vm":1.0309312555268184,"vmin":0.0,"base_kv":345.0,"vmax":1.0499999523162842,"index":18},"9":{"name":"Bus 09","bus_type":1,"va":-0.18015265304940212,"vm":1.0282261046897927,"vmin":0.0,"base_kv":345.0,"vmax":1.0499999523162842,"index":9},"30":{"name":"Bus 30","bus_type":2,"va":-0.058189158059773115,"vm":1.0475000143051147,"vmin":0.0,"base_kv":16.5,"vmax":1.0499999523162842,"index":30},"3":{"name":"Bus 03","bus_type":1,"va":-0.1500729945530515,"vm":1.0301728592087835,"vmin":0.0,"base_kv":345.0,"vmax":1.0499999523162842,"index":3}},"dcline":{},"gen":{"3":{"pg":6.5,"dynamic_model":{"parameters":{"Xq_dd":0.36000001430511475,"Efd0":2.2318305782925187,"Xd_d":0.42480000853538513,"Xd_dd":0.36000001430511475,"Tq_dd":0.03500000014901161,"Tq_d":1.5,"Td_d":5.699999809265137,"Td_dd":0.05000000074505806,"H":4.474999904632568,"Tm0":0.8125000000000229,"Rs":0.0,"Xq":1.8960000276565552,"ωs":1.0,"consider_ωr_variations":true,"index":3,"Xq_d":0.7008000016212463,"Xd":1.996000051498413,"Xl":0.2432},"controllers":{"IEEET1":{"parameters":{"Vrmin":-1.0,"Vrmax":1.0,"Se1":0.13,"Tr":0.01,"E1":2.342286,"Ta":0.06,"Te":0.5,"Se2":0.34,"Ke":-0.0198,"E2":3.123048,"Kf":0.08,"Vref":1.0211322292828957,"Tf":1.0,"Ka":5.0},"model_type":"IEEET1"},"TGOV1":{"parameters":{"T3":7.2,"P_set":0.040625000000001146,"Vmax":1.0,"T1":0.5,"T2":2.1,"Rd":0.05,"Vmin":0.0},"model_type":"TGOV1"}},"model_type":"SixthOrderModel"},"name":"G 03","qg":2.0514437107311725,"gen_bus":32,"vbase":16.5,"vg":0.9830999970436096,"mbase":800.0,"index":3,"gen_status":1},"4":{"pg":6.32,"dynamic_model":{"parameters":{"Xq_dd":0.2800000011920929,"Efd0":2.100184645643361,"Xd_d":0.34880000352859497,"Xd_dd":0.2800000011920929,"Tq_dd":0.03500000014901161,"Tq_d":1.5,"Td_d":5.690000057220459,"Td_dd":0.05000000074505806,"H":3.5749998092651367,"Tm0":0.7900000000000017,"Rs":0.0,"Xq":2.063999891281128,"ωs":1.0,"consider_ωr_variations":true,"index":4,"Xq_d":1.3279999494552612,"Xd":2.0959999561309814,"Xl":0.236},"controllers":{"IEEET1":{"parameters":{"Vrmin":-1.0,"Vrmax":1.0,"Se1":0.08,"Tr":0.01,"E1":2.868069,"Ta":0.06,"Te":0.5,"Se2":0.314,"Ke":-0.0525,"E2":3.824092,"Kf":0.08,"Vref":0.975148073427776,"Tf":1.0,"Ka":5.0},"model_type":"IEEET1"},"TGOV1":{"parameters":{"T3":7.2,"P_set":0.03950000000000009,"Vmax":1.0,"T1":0.5,"T2":2.1,"Rd":0.05,"Vmin":0.0},"model_type":"TGOV1"}},"model_type":"SixthOrderModel"},"name":"G 04","qg":1.0990598880307398,"gen_bus":33,"vbase":16.5,"vg":0.9972000122070312,"mbase":800.0,"index":4,"gen_status":1},"1":{"pg":10.0,"dynamic_model":{"parameters":{"Xq_dd":0.4000000059604645,"Efd0":1.0649514544546264,"Xd_d":0.6000000238418579,"Xd_dd":0.4000000059604645,"Tq_dd":0.03500000014901161,"Tq_d":0.699999988079071,"Td_d":7.0,"Td_dd":0.05000000074505806,"H":5.0,"Tm0":0.10000000000000002,"Rs":0.0,"Xq":1.899999976158142,"ωs":1.0,"consider_ωr_variations":true,"index":10,"Xq_d":0.800000011920929,"Xd":2.0,"Xl":0.3},"controllers":{},"model_type":"SixthOrderModel"},"name":"G 01","qg":0.8828141572984312,"gen_bus":39,"vbase":345.0,"vg":1.0299999713897705,"mbase":10000.0,"index":1,"gen_status":1},"5":{"pg":5.08,"dynamic_model":{"parameters":{"Xq_dd":0.2669999897480011,"Efd0":2.293261609341372,"Xd_d":0.3959999978542328,"Xd_dd":0.2669999897480011,"Tq_dd":0.03500000014901161,"Tq_d":0.4399999976158142,"Td_d":5.400000095367432,"Td_dd":0.05000000074505806,"H":4.333000183105469,"Tm0":0.8466666666666667,"Rs":0.0,"Xq":1.8600000143051147,"ωs":1.0,"consider_ωr_variations":true,"index":5,"Xq_d":0.49799999594688416,"Xd":2.009999990463257,"Xl":0.162},"controllers":{"IEEET1":{"parameters":{"Vrmin":-10.0,"Vrmax":10.0,"Se1":0.07,"Tr":0.01,"E1":3.926702,"Ta":0.02,"Te":0.785,"Se2":0.91,"Ke":1.0,"E2":5.235602,"Kf":0.03,"Vref":1.069631554729384,"Tf":1.0,"Ka":40.0},"model_type":"IEEET1"},"TGOV1":{"parameters":{"T3":7.2,"P_set":0.042333333333333334,"Vmax":1.0,"T1":0.5,"T2":2.1,"Rd":0.05,"Vmin":0.0},"model_type":"TGOV1"}},"model_type":"SixthOrderModel"},"name":"G 05","qg":1.657636473441866,"gen_bus":34,"vbase":16.5,"vg":1.0123000144958496,"mbase":600.0,"index":5,"gen_status":1},"2":{"pg":5.2081107171162255,"dynamic_model":{"parameters":{"Xq_dd":0.3499999940395355,"Efd0":2.221609536921748,"Xd_d":0.4878999888896942,"Xd_dd":0.3499999940395355,"Tq_dd":0.03500000014901161,"Tq_d":1.5,"Td_d":6.559999942779541,"Td_dd":0.05000000074505806,"H":4.328999996185303,"Tm0":0.7440158167308897,"Rs":0.0,"Xq":1.9739999771118164,"ωs":1.0,"consider_ωr_variations":true,"index":1,"Xq_d":1.190000057220459,"Xd":2.065000057220459,"Xl":0.245},"controllers":{"IEEET1":{"parameters":{"Vrmin":-1.0,"Vrmax":1.0,"Se1":0.66,"Tr":0.01,"E1":3.036437,"Ta":0.05,"Te":0.405,"Se2":0.88,"Ke":-0.633,"E2":4.048583,"Kf":0.057,"Vref":0.9282116540303063,"Tf":0.5,"Ka":6.2},"model_type":"IEEET1"},"TGOV1":{"parameters":{"T3":7.2,"P_set":0.037200790836544484,"Vmax":1.0,"T1":0.5,"T2":2.1,"Rd":0.05,"Vmin":0.0},"model_type":"TGOV1"}},"model_type":"SixthOrderModel"},"name":"G 02","qg":1.9825178456377985,"gen_bus":31,"vbase":16.5,"vg":0.9819999933242798,"mbase":700.0,"index":2,"gen_status":1},"10":{"pg":2.5,"dynamic_model":{"parameters":{"Xq_dd":0.25,"Efd0":1.208926688363317,"Xd_d":0.3100000023841858,"Xd_dd":0.25,"Tq_dd":0.03500000014901161,"Tq_d":2.0,"Td_d":10.199999809265137,"Td_dd":0.05000000074505806,"H":4.199999809265137,"Tm0":0.25,"Rs":0.0,"Xq":0.6899999976158142,"ωs":1.0,"consider_ωr_variations":true,"index":2,"Xq_d":0.5,"Xd":1.0,"Xl":0.125},"controllers":{"IEEET1":{"parameters":{"Vrmin":-1.0,"Vrmax":1.0,"Se1":0.08,"Tr":0.01,"E1":3.546099,"Ta":0.06,"Te":0.25,"Se2":0.26,"Ke":-0.0485,"E2":4.728132,"Kf":0.04,"Vref":1.0357734254279907,"Tf":1.0,"Ka":5.0},"model_type":"IEEET1"},"TGOV1":{"parameters":{"T3":7.2,"P_set":0.0125,"Vmax":1.0,"T1":0.5,"T2":2.1,"Rd":0.05,"Vmin":0.0},"model_type":"TGOV1"}},"model_type":"SixthOrderModel"},"name":"G 10","qg":1.461581781260682,"gen_bus":30,"vbase":16.5,"vg":1.0475000143051147,"mbase":1000.0,"index":10,"gen_status":1},"6":{"pg":6.5,"dynamic_model":{"parameters":{"Xq_dd":0.3199999928474426,"Efd0":2.2177889022083552,"Xd_d":0.4000000059604645,"Xd_dd":0.3199999928474426,"Tq_dd":0.03500000014901161,"Tq_d":0.4000000059604645,"Td_d":7.300000190734863,"Td_dd":0.05000000074505806,"H":4.349999904632568,"Tm0":0.8125000000000415,"Rs":0.0,"Xq":1.9279999732971191,"ωs":1.0,"consider_ωr_variations":true,"index":6,"Xq_d":0.651199996471405,"Xd":2.0320000648498535,"Xl":0.1792},"controllers":{"IEEET1":{"parameters":{"Vrmin":-1.0,"Vrmax":1.0,"Se1":0.064,"Tr":0.01,"E1":3.586801,"Ta":0.02,"Te":0.471,"Se2":0.251,"Ke":-0.0419,"E2":4.782401,"Kf":0.0754,"Vref":1.030714884367536,"Tf":1.246,"Ka":5.0},"model_type":"IEEET1"},"TGOV1":{"parameters":{"T3":7.2,"P_set":0.040625000000002076,"Vmax":1.0,"T1":0.5,"T2":2.1,"Rd":0.05,"Vmin":0.0},"model_type":"TGOV1"}},"model_type":"SixthOrderModel"},"name":"G 06","qg":2.1241182609461893,"gen_bus":35,"vbase":16.5,"vg":1.049299955368042,"mbase":800.0,"index":6,"gen_status":1},"7":{"pg":5.6,"dynamic_model":{"parameters":{"Xq_dd":0.30799999833106995,"Efd0":2.054164287955444,"Xd_d":0.34299999475479126,"Xd_dd":0.30799999833106995,"Tq_dd":0.03500000014901161,"Tq_d":1.5,"Td_d":5.659999847412109,"Td_dd":0.05000000074505806,"H":3.7710001468658447,"Tm0":0.800000000000067,"Rs":0.0,"Xq":2.0439999103546143,"ωs":1.0,"consider_ωr_variations":true,"index":7,"Xq_d":1.3020000457763672,"Xd":2.065000057220459,"Xl":0.2254},"controllers":{"IEEET1":{"parameters":{"Vrmin":-6.5,"Vrmax":6.5,"Se1":0.53,"Tr":0.01,"E1":2.801724,"Ta":0.02,"Te":0.73,"Se2":0.74,"Ke":1.0,"E2":3.735632,"Kf":0.03,"Vref":1.1334781081487717,"Tf":1.0,"Ka":40.0},"model_type":"IEEET1"},"TGOV1":{"parameters":{"T3":7.2,"P_set":0.04000000000000335,"Vmax":1.0,"T1":0.5,"T2":2.1,"Rd":0.05,"Vmin":0.0},"model_type":"TGOV1"}},"model_type":"SixthOrderModel"},"name":"G 07","qg":1.0117501093489665,"gen_bus":36,"vbase":16.5,"vg":1.0635000467300415,"mbase":700.0,"index":7,"gen_status":1},"9":{"pg":8.3,"dynamic_model":{"parameters":{"Xq_dd":0.44999998807907104,"Efd0":2.012775637374432,"Xd_d":0.5699999928474426,"Xd_dd":0.44999998807907104,"Tq_dd":0.03500000014901161,"Tq_d":1.9600000381469727,"Td_d":4.789999961853027,"Td_dd":0.05000000074505806,"H":3.450000047683716,"Tm0":0.8300000000000005,"Rs":0.0,"Xq":2.049999952316284,"ωs":1.0,"consider_ωr_variations":true,"index":9,"Xq_d":0.5870000123977661,"Xd":2.1059999465942383,"Xl":0.298},"controllers":{"IEEET1":{"parameters":{"Vrmin":-10.5,"Vrmax":10.5,"Se1":0.62,"Tr":0.01,"E1":4.256757,"Ta":0.02,"Te":1.4,"Se2":0.85,"Ke":1.0,"E2":5.675676,"Kf":0.03,"Vref":1.089784833198021,"Tf":1.0,"Ka":40.0},"model_type":"IEEET1"},"TGOV1":{"parameters":{"T3":7.2,"P_set":0.04150000000000003,"Vmax":1.0,"T1":0.5,"T2":2.1,"Rd":0.05,"Vmin":0.0},"model_type":"TGOV1"}},"model_type":"SixthOrderModel"},"name":"G 09","qg":0.22841623826725174,"gen_bus":38,"vbase":16.5,"vg":1.0264999866485596,"mbase":1000.0,"index":9,"gen_status":1},"8":{"pg":5.4,"dynamic_model":{"parameters":{"Xq_dd":0.3149999976158142,"Efd0":1.8383439301228996,"Xd_d":0.39899998903274536,"Xd_dd":0.3149999976158142,"Tq_dd":0.03500000014901161,"Tq_d":0.4099999964237213,"Td_d":6.699999809265137,"Td_dd":0.05000000074505806,"H":3.4710001945495605,"Tm0":0.7714285714285718,"Rs":0.0,"Xq":1.9600000381469727,"ωs":1.0,"consider_ωr_variations":true,"index":8,"Xq_d":0.6377000212669373,"Xd":2.0299999713897705,"Xl":0.196},"controllers":{"IEEET1":{"parameters":{"Vrmin":-1.0,"Vrmax":1.0,"Se1":0.072,"Tr":0.01,"E1":3.191489,"Ta":0.02,"Te":0.528,"Se2":0.282,"Ke":-0.047,"E2":4.255319,"Kf":0.0854,"Vref":1.0105195310079556,"Tf":1.26,"Ka":5.0},"model_type":"IEEET1"},"TGOV1":{"parameters":{"T3":7.2,"P_set":0.03857142857142859,"Vmax":1.0,"T1":0.5,"T2":2.1,"Rd":0.05,"Vmin":0.0},"model_type":"TGOV1"}},"model_type":"SixthOrderModel"},"name":"G 08","qg":0.004399270020763148,"gen_bus":37,"vbase":16.5,"vg":1.0277999639511108,"mbase":700.0,"index":8,"gen_status":1}},"branch":{"32":{"br_r":0.000699999975040555,"shift":0.0,"name":"Trf 19 - 33","br_x":0.014199993573129177,"g_to":0.0,"g_fr":0.0,"b_fr":0.0,"f_bus":19,"br_status":1,"t_bus":33,"b_to":0.0,"index":32,"angmin":-30.0,"angmax":30.0,"transformer":true,"tap":1.07},"29":{"br_r":0.000300000054881718,"shift":0.0,"name":"Line 16 - 24","br_x":0.00590000043828006,"g_to":0.0,"g_fr":0.0,"b_fr":0.03400016003740206,"f_bus":16,"br_status":1,"t_bus":24,"b_to":0.03400016003740206,"index":29,"angmin":-30.0,"angmax":30.0,"transformer":false,"tap":1.0},"1":{"br_r":0.001000000008692344,"shift":0.0,"name":"Line 01 - 39","br_x":0.025000000993410747,"g_to":0.0,"g_fr":0.0,"b_fr":0.37500083737865836,"f_bus":1,"br_status":1,"t_bus":39,"b_to":0.37500083737865836,"index":1,"angmin":-30.0,"angmax":30.0,"transformer":false,"tap":1.0},"2":{"br_r":0.0035000008081267795,"shift":0.0,"name":"Line 01 - 02","br_x":0.041100002833102334,"g_to":0.0,"g_fr":0.0,"b_fr":0.34934980775013186,"f_bus":1,"br_status":1,"t_bus":2,"b_to":0.34934980775013186,"index":2,"angmin":-30.0,"angmax":30.0,"transformer":false,"tap":1.0},"41":{"br_r":0.0031999999126759646,"shift":0.0,"name":"Line 25 - 26","br_x":0.03230000211421096,"g_to":0.0,"g_fr":0.0,"b_fr":0.2564997461504503,"f_bus":25,"br_status":1,"t_bus":26,"b_to":0.2564997461504503,"index":41,"angmin":-30.0,"angmax":30.0,"transformer":false,"tap":1.0},"27":{"br_r":0.0015999997404123638,"shift":0.0,"name":"Line 16 - 19","br_x":0.019500000544103637,"g_to":0.0,"g_fr":0.0,"b_fr":0.1519991827766055,"f_bus":16,"br_status":1,"t_bus":19,"b_to":0.1519991827766055,"index":27,"angmin":-30.0,"angmax":30.0,"transformer":false,"tap":1.0},"42":{"br_r":0.0014000001078834552,"shift":0.0,"name":"Line 26 - 27","br_x":0.014700000676428217,"g_to":0.0,"g_fr":0.0,"b_fr":0.11979967705921879,"f_bus":26,"br_status":1,"t_bus":27,"b_to":0.11979967705921879,"index":42,"angmin":-30.0,"angmax":30.0,"transformer":false,"tap":1.0},"33":{"br_r":0.0006999999284744263,"shift":0.0,"name":"Trf 19 - 20","br_x":0.013799998164176942,"g_to":0.0,"g_fr":0.0,"b_fr":0.0,"f_bus":19,"br_status":1,"t_bus":20,"b_to":0.0,"index":33,"angmin":-30.0,"angmax":30.0,"transformer":true,"tap":1.06},"28":{"br_r":0.000800000084957908,"shift":0.0,"name":"Line 16 - 21","br_x":0.013500000228766145,"g_to":0.0,"g_fr":0.0,"b_fr":0.1274000549668954,"f_bus":16,"br_status":1,"t_bus":21,"b_to":0.1274000549668954,"index":28,"angmin":-30.0,"angmax":30.0,"transformer":false,"tap":1.0},"26":{"br_r":0.0007000001127483577,"shift":0.0,"name":"Line 16 - 17","br_x":0.00890000011520559,"g_to":0.0,"g_fr":0.0,"b_fr":0.06710031027017067,"f_bus":16,"br_status":1,"t_bus":17,"b_to":0.06710031027017067,"index":26,"angmin":-30.0,"angmax":30.0,"transformer":false,"tap":1.0},"10":{"br_r":0.00019999997696545915,"shift":0.0,"name":"Line 05 - 06","br_x":0.002600000168695795,"g_to":0.0,"g_fr":0.0,"b_fr":0.02170006756413536,"f_bus":5,"br_status":1,"t_bus":6,"b_to":0.02170006756413536,"index":10,"angmin":-30.0,"angmax":30.0,"transformer":false,"tap":1.0},"24":{"br_r":0.0017999998116882212,"shift":0.0,"name":"Line 14 - 15","br_x":0.021700000723826482,"g_to":0.0,"g_fr":0.0,"b_fr":0.18299926773667938,"f_bus":14,"br_status":1,"t_bus":15,"b_to":0.18299926773667938,"index":24,"angmin":-30.0,"angmax":30.0,"transformer":false,"tap":1.0},"25":{"br_r":0.0008999998318071515,"shift":0.0,"name":"Line 15 - 16","br_x":0.009399999981235977,"g_to":0.0,"g_fr":0.0,"b_fr":0.08550016573713853,"f_bus":15,"br_status":1,"t_bus":16,"b_to":0.08550016573713853,"index":25,"angmin":-30.0,"angmax":30.0,"transformer":false,"tap":1.0},"23":{"br_r":0.0008999999092163725,"shift":0.0,"name":"Line 13 - 14","br_x":0.010100000562867662,"g_to":0.0,"g_fr":0.0,"b_fr":0.08615023233953206,"f_bus":13,"br_status":1,"t_bus":14,"b_to":0.08615023233953206,"index":23,"angmin":-30.0,"angmax":30.0,"transformer":false,"tap":1.0},"5":{"br_r":0.006999999645050112,"shift":0.0,"name":"Line 02 - 25","br_x":0.008600000003290073,"g_to":0.0,"g_fr":0.0,"b_fr":0.07299967653043317,"f_bus":2,"br_status":1,"t_bus":25,"b_to":0.07299967653043317,"index":5,"angmin":-30.0,"angmax":30.0,"transformer":false,"tap":1.0},"31":{"br_r":0.0012999998392540593,"shift":0.0,"name":"Line 17 - 27","br_x":0.017300000364380796,"g_to":0.0,"g_fr":0.0,"b_fr":0.16079999806656406,"f_bus":17,"br_status":1,"t_bus":27,"b_to":0.16079999806656406,"index":31,"angmin":-30.0,"angmax":30.0,"transformer":false,"tap":1.0},"43":{"br_r":0.004299999919858043,"shift":0.0,"name":"Line 26 - 28","br_x":0.04740000037589605,"g_to":0.0,"g_fr":0.0,"b_fr":0.3900985890418224,"f_bus":26,"br_status":1,"t_bus":28,"b_to":0.3900985890418224,"index":43,"angmin":-30.0,"angmax":30.0,"transformer":false,"tap":1.0},"39":{"br_r":0.002199999725987236,"shift":0.0,"name":"Line 23 - 24","br_x":0.03500000215996419,"g_to":0.0,"g_fr":0.0,"b_fr":0.18050128030143106,"f_bus":23,"br_status":1,"t_bus":24,"b_to":0.18050128030143106,"index":39,"angmin":-30.0,"angmax":30.0,"transformer":false,"tap":1.0},"34":{"br_r":0.0009000000233451525,"shift":0.0,"name":"Trf 20 - 34","br_x":0.01800000046690305,"g_to":0.0,"g_fr":0.0,"b_fr":0.0,"f_bus":20,"br_status":1,"t_bus":34,"b_to":0.0,"index":34,"angmin":-30.0,"angmax":30.0,"transformer":true,"tap":1.0089999997615815},"44":{"br_r":0.00569999994089206,"shift":0.0,"name":"Line 26 - 29","br_x":0.06250000248352687,"g_to":0.0,"g_fr":0.0,"b_fr":0.5144984478217224,"f_bus":26,"br_status":1,"t_bus":29,"b_to":0.5144984478217224,"index":44,"angmin":-30.0,"angmax":30.0,"transformer":false,"tap":1.0},"17":{"br_r":0.001000000008692344,"shift":0.0,"name":"Line 09 - 39","br_x":0.025000000993410747,"g_to":0.0,"g_fr":0.0,"b_fr":0.6000004503542706,"f_bus":9,"br_status":1,"t_bus":39,"b_to":0.6000004503542706,"index":17,"angmin":-30.0,"angmax":30.0,"transformer":false,"tap":1.0},"37":{"br_r":0.0006000000435523298,"shift":0.0,"name":"Line 22 - 23","br_x":0.009600000696837276,"g_to":0.0,"g_fr":0.0,"b_fr":0.09230039064711089,"f_bus":22,"br_status":1,"t_bus":23,"b_to":0.09230039064711089,"index":37,"angmin":-30.0,"angmax":30.0,"transformer":false,"tap":1.0},"9":{"br_r":0.0007999999450699972,"shift":0.0,"name":"Line 04 - 14","br_x":0.01290000096642154,"g_to":0.0,"g_fr":0.0,"b_fr":0.0690997502600336,"f_bus":4,"br_status":1,"t_bus":14,"b_to":0.0690997502600336,"index":9,"angmin":-30.0,"angmax":30.0,"transformer":false,"tap":1.0},"12":{"br_r":0.0,"shift":0.0,"name":"Trf 06 - 31","br_x":0.024999999574252536,"g_to":0.0,"g_fr":0.0,"b_fr":0.0,"f_bus":6,"br_status":1,"t_bus":31,"b_to":0.0,"index":12,"angmin":-30.0,"angmax":30.0,"transformer":true,"tap":1.07},"20":{"br_r":0.0004000000361641648,"shift":0.0,"name":"Line 10 - 13","br_x":0.0043000000016450365,"g_to":0.0,"g_fr":0.0,"b_fr":0.03645007677249099,"f_bus":10,"br_status":1,"t_bus":13,"b_to":0.03645007677249099,"index":20,"angmin":-30.0,"angmax":30.0,"transformer":false,"tap":1.0},"6":{"br_r":0.0013000000512187267,"shift":0.0,"name":"Line 03 - 04","br_x":0.021300001215596744,"g_to":0.0,"g_fr":0.0,"b_fr":0.11069922581586487,"f_bus":3,"br_status":1,"t_bus":4,"b_to":0.11069922581586487,"index":6,"angmin":-30.0,"angmax":30.0,"transformer":false,"tap":1.0},"14":{"br_r":0.0007000001105582384,"shift":0.0,"name":"Line 06 - 11","br_x":0.008200000495060337,"g_to":0.0,"g_fr":0.0,"b_fr":0.06945033397823791,"f_bus":6,"br_status":1,"t_bus":11,"b_to":0.06945033397823791,"index":14,"angmin":-30.0,"angmax":30.0,"transformer":false,"tap":1.0},"7":{"br_r":0.0010999999777895828,"shift":0.0,"name":"Line 03 - 18","br_x":0.013300000474651278,"g_to":0.0,"g_fr":0.0,"b_fr":0.10689967736603885,"f_bus":3,"br_status":1,"t_bus":18,"b_to":0.10689967736603885,"index":7,"angmin":-30.0,"angmax":30.0,"transformer":false,"tap":1.0},"8":{"br_r":0.0008000000380388057,"shift":0.0,"name":"Line 04 - 05","br_x":0.01280000060862089,"g_to":0.0,"g_fr":0.0,"b_fr":0.06710000454913279,"f_bus":4,"br_status":1,"t_bus":5,"b_to":0.06710000454913279,"index":8,"angmin":-30.0,"angmax":30.0,"transformer":false,"tap":1.0},"19":{"br_r":0.0004000000361641648,"shift":0.0,"name":"Line 10 - 11","br_x":0.0043000000016450365,"g_to":0.0,"g_fr":0.0,"b_fr":0.03645007677249099,"f_bus":10,"br_status":1,"t_bus":11,"b_to":0.03645007677249099,"index":19,"angmin":-30.0,"angmax":30.0,"transformer":false,"tap":1.0},"4":{"br_r":0.0012999997427097568,"shift":0.0,"name":"Line 02 - 03","br_x":0.015100000184657953,"g_to":0.0,"g_fr":0.0,"b_fr":0.12859993746580536,"f_bus":2,"br_status":1,"t_bus":3,"b_to":0.12859993746580536,"index":4,"angmin":-30.0,"angmax":30.0,"transformer":false,"tap":1.0},"22":{"br_r":0.001599999920775493,"shift":0.0,"name":"Trf 13 - 12","br_x":0.043499981363614396,"g_to":0.0,"g_fr":0.0,"b_fr":0.0,"f_bus":12,"br_status":1,"t_bus":13,"b_to":0.0,"index":22,"angmin":-30.0,"angmax":30.0,"transformer":true,"tap":1.0060000002384186},"11":{"br_r":0.0007999999671506447,"shift":0.0,"name":"Line 05 - 08","br_x":0.011200000652729084,"g_to":0.0,"g_fr":0.0,"b_fr":0.07380036891452198,"f_bus":5,"br_status":1,"t_bus":8,"b_to":0.07380036891452198,"index":11,"angmin":-30.0,"angmax":30.0,"transformer":false,"tap":1.0},"35":{"br_r":0.0008000001171756499,"shift":0.0,"name":"Line 21 - 22","br_x":0.01400000009479653,"g_to":0.0,"g_fr":0.0,"b_fr":0.1282504022879528,"f_bus":21,"br_status":1,"t_bus":22,"b_to":0.1282504022879528,"index":35,"angmin":-30.0,"angmax":30.0,"transformer":false,"tap":1.0},"13":{"br_r":0.0006000000992521584,"shift":0.0,"name":"Line 06 - 07","br_x":0.009200000227121108,"g_to":0.0,"g_fr":0.0,"b_fr":0.05650008418231701,"f_bus":6,"br_status":1,"t_bus":7,"b_to":0.05650008418231701,"index":13,"angmin":-30.0,"angmax":30.0,"transformer":false,"tap":1.0},"15":{"br_r":0.0004000000471277332,"shift":0.0,"name":"Line 07 - 08","br_x":0.004600000113560554,"g_to":0.0,"g_fr":0.0,"b_fr":0.03900006961213349,"f_bus":7,"br_status":1,"t_bus":8,"b_to":0.03900006961213349,"index":15,"angmin":-30.0,"angmax":30.0,"transformer":false,"tap":1.0},"16":{"br_r":0.0022999994613120225,"shift":0.0,"name":"Line 08 - 09","br_x":0.036300001042454046,"g_to":0.0,"g_fr":0.0,"b_fr":0.19020092997037732,"f_bus":8,"br_status":1,"t_bus":9,"b_to":0.19020092997037732,"index":16,"angmin":-30.0,"angmax":30.0,"transformer":false,"tap":1.0},"40":{"br_r":0.0005999999786061899,"shift":0.0,"name":"Trf 25 - 37","br_x":0.023200001035417826,"g_to":0.0,"g_fr":0.0,"b_fr":0.0,"f_bus":25,"br_status":1,"t_bus":37,"b_to":0.0,"index":40,"angmin":-30.0,"angmax":30.0,"transformer":true,"tap":1.025},"21":{"br_r":0.001599999920775493,"shift":0.0,"name":"Trf 11 - 12","br_x":0.043499981363614396,"g_to":0.0,"g_fr":0.0,"b_fr":0.0,"f_bus":12,"br_status":1,"t_bus":11,"b_to":0.0,"index":21,"angmin":-30.0,"angmax":30.0,"transformer":true,"tap":1.0060000002384186},"38":{"br_r":0.0004999999489103045,"shift":0.0,"name":"Trf 23 - 36","br_x":0.02720000488417489,"g_to":0.0,"g_fr":0.0,"b_fr":0.0,"f_bus":23,"br_status":1,"t_bus":36,"b_to":0.0,"index":38,"angmin":-30.0,"angmax":30.0,"transformer":true,"tap":1.0},"46":{"br_r":0.000800000037997961,"shift":0.0,"name":"Trf 29 - 38","br_x":0.015600000321865082,"g_to":0.0,"g_fr":0.0,"b_fr":0.0,"f_bus":29,"br_status":1,"t_bus":38,"b_to":0.0,"index":46,"angmin":-30.0,"angmax":30.0,"transformer":true,"tap":1.025},"45":{"br_r":0.0014000000258129486,"shift":0.0,"name":"Line 28 - 29","br_x":0.015100000184657953,"g_to":0.0,"g_fr":0.0,"b_fr":0.12450040614505094,"f_bus":28,"br_status":1,"t_bus":29,"b_to":0.12450040614505094,"index":45,"angmin":-30.0,"angmax":30.0,"transformer":false,"tap":1.0},"36":{"br_r":0.0,"shift":0.0,"name":"Trf 22 - 35","br_x":0.014299999922513962,"g_to":0.0,"g_fr":0.0,"b_fr":0.0,"f_bus":22,"br_status":1,"t_bus":35,"b_to":0.0,"index":36,"angmin":-30.0,"angmax":30.0,"transformer":true,"tap":1.025},"18":{"br_r":0.0,"shift":0.0,"name":"Trf 10 - 32","br_x":0.019999999552965164,"g_to":0.0,"g_fr":0.0,"b_fr":0.0,"f_bus":10,"br_status":1,"t_bus":32,"b_to":0.0,"index":18,"angmin":-30.0,"angmax":30.0,"transformer":true,"tap":1.07},"30":{"br_r":0.0007000001105582384,"shift":0.0,"name":"Line 17 - 18","br_x":0.008200000495060337,"g_to":0.0,"g_fr":0.0,"b_fr":0.06594968328342747,"f_bus":17,"br_status":1,"t_bus":18,"b_to":0.06594968328342747,"index":30,"angmin":-30.0,"angmax":30.0,"transformer":false,"tap":1.0},"3":{"br_r":0.0,"shift":0.0,"name":"Trf 02 - 30","br_x":0.01810000091791153,"g_to":0.0,"g_fr":0.0,"b_fr":0.0,"f_bus":2,"br_status":1,"t_bus":30,"b_to":0.0,"index":3,"angmin":-30.0,"angmax":30.0,"transformer":true,"tap":1.025}},"storage":{},"switch":{},"multinetwork":false,"baseMVA":100,"per_unit":true,"shunt":{},"multiinfrastructure":false,"dynamic_model_parameters":{"f_nom":60.0,"ωs":1.0,"ω_ref":"1"},"load":{"4":{"name":"Load 04","load_bus":4,"status":1,"vm":0.01,"qd":1.84,"dynamic_model":{"parameters":{"Kqz":1.0,"Kpz":1.0,"Kqi":0.0,"Kpi":0.0},"model_type":"ZIPLoad"},"pd":5.0,"index":4},"1":{"name":"Load 31","load_bus":31,"status":1,"vm":0.01,"qd":0.045999999046325686,"dynamic_model":{"parameters":{"Kqz":1.0,"Kpz":1.0,"Kqi":0.0,"Kpi":0.0},"model_type":"ZIPLoad"},"pd":0.09199999809265137,"index":1},"12":{"name":"Load 21","load_bus":21,"status":1,"vm":0.01,"qd":1.15,"dynamic_model":{"parameters":{"Kqz":1.0,"Kpz":1.0,"Kqi":0.0,"Kpi":0.0},"model_type":"ZIPLoad"},"pd":2.74,"index":12},"2":{"name":"Load 39","load_bus":39,"status":1,"vm":0.01,"qd":2.5,"dynamic_model":{"parameters":{"Kqz":1.0,"Kpz":1.0,"Kqi":0.0,"Kpi":0.0},"model_type":"ZIPLoad"},"pd":11.04,"index":2},"6":{"name":"Load 08","load_bus":8,"status":1,"vm":0.01,"qd":1.76,"dynamic_model":{"parameters":{"Kqz":1.0,"Kpz":1.0,"Kqi":0.0,"Kpi":0.0},"model_type":"ZIPLoad"},"pd":5.22,"index":6},"11":{"name":"Load 20","load_bus":20,"status":1,"vm":0.01,"qd":1.03,"dynamic_model":{"parameters":{"Kqz":1.0,"Kpz":1.0,"Kqi":0.0,"Kpi":0.0},"model_type":"ZIPLoad"},"pd":6.28,"index":11},"13":{"name":"Load 23","load_bus":23,"status":1,"vm":0.01,"qd":0.845999984741211,"dynamic_model":{"parameters":{"Kqz":1.0,"Kpz":1.0,"Kqi":0.0,"Kpi":0.0},"model_type":"ZIPLoad"},"pd":2.475,"index":13},"5":{"name":"Load 07","load_bus":7,"status":1,"vm":0.01,"qd":0.84,"dynamic_model":{"parameters":{"Kqz":1.0,"Kpz":1.0,"Kqi":0.0,"Kpi":0.0},"model_type":"ZIPLoad"},"pd":2.3380000305175783,"index":5},"15":{"name":"Load 25","load_bus":25,"status":1,"vm":0.01,"qd":0.47200000762939454,"dynamic_model":{"parameters":{"Kqz":1.0,"Kpz":1.0,"Kqi":0.0,"Kpi":0.0},"model_type":"ZIPLoad"},"pd":2.24,"index":15},"16":{"name":"Load 26","load_bus":26,"status":1,"vm":0.01,"qd":0.17,"dynamic_model":{"parameters":{"Kqz":1.0,"Kpz":1.0,"Kqi":0.0,"Kpi":0.0},"model_type":"ZIPLoad"},"pd":1.39,"index":16},"14":{"name":"Load 24","load_bus":24,"status":1,"vm":0.01,"qd":-0.9219999694824219,"dynamic_model":{"parameters":{"Kqz":1.0,"Kpz":1.0,"Kqi":0.0,"Kpi":0.0},"model_type":"ZIPLoad"},"pd":3.0860000610351563,"index":14},"7":{"name":"Load 12","load_bus":12,"status":1,"vm":0.01,"qd":0.88,"dynamic_model":{"parameters":{"Kqz":1.0,"Kpz":1.0,"Kqi":0.0,"Kpi":0.0},"model_type":"ZIPLoad"},"pd":0.075,"index":7},"8":{"name":"Load 15","load_bus":15,"status":1,"vm":0.01,"qd":1.53,"dynamic_model":{"parameters":{"Kqz":1.0,"Kpz":1.0,"Kqi":0.0,"Kpi":0.0},"model_type":"ZIPLoad"},"pd":3.2,"index":8},"17":{"name":"Load 27","load_bus":27,"status":1,"vm":0.01,"qd":0.755,"dynamic_model":{"parameters":{"Kqz":1.0,"Kpz":1.0,"Kqi":0.0,"Kpi":0.0},"model_type":"ZIPLoad"},"pd":2.81,"index":17},"10":{"name":"Load 18","load_bus":18,"status":1,"vm":0.01,"qd":0.3,"dynamic_model":{"parameters":{"Kqz":1.0,"Kpz":1.0,"Kqi":0.0,"Kpi":0.0},"model_type":"ZIPLoad"},"pd":1.58,"index":10},"19":{"name":"Load 29","load_bus":29,"status":1,"vm":0.01,"qd":0.26899999618530274,"dynamic_model":{"parameters":{"Kqz":1.0,"Kpz":1.0,"Kqi":0.0,"Kpi":0.0},"model_type":"ZIPLoad"},"pd":2.835,"index":19},"9":{"name":"Load 16","load_bus":16,"status":1,"vm":0.01,"qd":0.32299999237060545,"dynamic_model":{"parameters":{"Kqz":1.0,"Kpz":1.0,"Kqi":0.0,"Kpi":0.0},"model_type":"ZIPLoad"},"pd":3.29,"index":9},"18":{"name":"Load 28","load_bus":28,"status":1,"vm":0.01,"qd":0.27600000381469725,"dynamic_model":{"parameters":{"Kqz":1.0,"Kpz":1.0,"Kqi":0.0,"Kpi":0.0},"model_type":"ZIPLoad"},"pd":2.06,"index":18},"3":{"name":"Load 03","load_bus":3,"status":1,"vm":0.01,"qd":0.024000000953674317,"dynamic_model":{"parameters":{"Kqz":1.0,"Kpz":1.0,"Kqi":0.0,"Kpi":0.0},"model_type":"ZIPLoad"},"pd":3.22,"index":3}}}